
 *******************************************************************************

         NASA-GLENN CHEMICAL EQUILIBRIUM PROGRAM CEA2, MAY 21, 2004
                   BY  BONNIE MCBRIDE AND SANFORD GORDON
      REFS: NASA RP-1311, PART I, 1994 AND NASA RP-1311, PART II, 1996

 *******************************************************************************



 prob case=12338386 ro equilibrium
  
  ! iac problem
 o/f 3.94 3.95 3.96 3.97 3.98 3.99 4.00 4.1 4.2 4.3
 p,psia  700
 supar 4.58
 reac
  fuel  C2H5OH wt%=75.000 t,k=298.15
  fuel  H2O(L) wt%=17.127 t,k=298.15
  fuel C5H10O2 wt%=4.144 h,kj=-33.37 C 5 H 10 O 2
  fuel C3H8O wt%=3.729  h,kj=0.36  C 3 H 8 O 1
  oxid  N2O wt%=100. t,k=200
 output short
 output siunits plot p o/f rho isp cp t gam mw mach Pinf/P
 output trace=1e-5
 end





              THEORETICAL ROCKET PERFORMANCE ASSUMING EQUILIBRIUM

           COMPOSITION DURING EXPANSION FROM INFINITE AREA COMBUSTOR

 Pin =   700.0 PSIA
 CASE = 12338386       

             REACTANT                    WT FRACTION      ENERGY      TEMP
                                          (SEE NOTE)     KJ/KG-MOL      K  
 FUEL        C2H5OH                       0.7500000   -234950.000    298.150
 FUEL        H2O(L)                       0.1712700   -285830.088    298.150
 FUEL        C5H10O2                      0.0414400    -33370.000      0.000
 FUEL        C3H8O                        0.0372900       360.000      0.000
 OXIDANT     N2O                          1.0000000     78046.212    200.000

 O/F=    3.94000  %FUEL= 20.242915  R,EQ.RATIO= 1.162935  PHI,EQ.RATIO= 1.212476

                 CHAMBER   THROAT     EXIT
 Pinf/P            1.0000   1.7449   27.843
 P, BAR            48.263   27.660   1.7334
 T, K             3134.35  2937.74  1899.08
 RHO, KG/CU M    4.7236 0 2.9147 0 2.8717-1
 H, KJ/KG          87.237  -461.13 -2605.61
 U, KJ/KG         -934.50 -1410.13 -3209.23
 G, KJ/KG        -31682.3 -30237.8 -21854.5
 S, KJ/(KG)(K)    10.1359  10.1359  10.1359

 M, (1/n)          25.506   25.738   26.159
 (dLV/dLP)t      -1.01254 -1.00869 -1.00005
 (dLV/dLT)p        1.2646   1.1969   1.0017
 Cp, KJ/(KG)(K)    3.6254   3.2268   1.6932
 GAMMAs            1.1511   1.1557   1.2320
 SON VEL,M/SEC     1084.5   1047.3    862.4
 MACH NUMBER        0.000    1.000    2.691

 PERFORMANCE PARAMETERS

 Ae/At                      1.0000   4.5800
 CSTAR, M/SEC               1581.2   1581.2
 CF                         0.6623   1.4677
 Ivac, M/SEC                1953.4   2580.8
 Isp, M/SEC                 1047.3   2320.7


 MOLE FRACTIONS

 *CO             9.2239-2 8.5004-2 6.4917-2
 *CO2            9.5956-2 1.0491-1 1.2810-1
 *H              6.2957-3 4.4208-3 1.1343-4
 HO2             1.728 -5 7.417 -6 2.838-10
 *H2             3.4701-2 3.1933-2 3.5799-2
 H2O             2.7674-1 2.8655-1 2.9695-1
 *NO             7.3580-3 4.5620-3 7.8705-6
 *N2             4.5851-1 4.6413-1 4.7402-1
 *O              2.0054-3 1.0662-3 1.8275-7
 *OH             1.9873-2 1.3609-2 8.7715-5
 *O2             6.2728-3 3.7988-3 6.6139-7

  * THERMODYNAMIC PROPERTIES FITTED TO 20000.K

 NOTE. WEIGHT FRACTION OF FUEL IN TOTAL FUELS AND OF OXIDANT IN TOTAL OXIDANTS










              THEORETICAL ROCKET PERFORMANCE ASSUMING EQUILIBRIUM

           COMPOSITION DURING EXPANSION FROM INFINITE AREA COMBUSTOR

 Pin =   700.0 PSIA
 CASE = 12338386       

             REACTANT                    WT FRACTION      ENERGY      TEMP
                                          (SEE NOTE)     KJ/KG-MOL      K  
 FUEL        C2H5OH                       0.7500000   -234950.000    298.150
 FUEL        H2O(L)                       0.1712700   -285830.088    298.150
 FUEL        C5H10O2                      0.0414400    -33370.000      0.000
 FUEL        C3H8O                        0.0372900       360.000      0.000
 OXIDANT     N2O                          1.0000000     78046.212    200.000

 O/F=    3.95000  %FUEL= 20.202020  R,EQ.RATIO= 1.160676  PHI,EQ.RATIO= 1.209407

                 CHAMBER   THROAT     EXIT
 Pinf/P            1.0000   1.7446   27.809
 P, BAR            48.263   27.664   1.7355
 T, K             3135.29  2939.17  1902.93
 RHO, KG/CU M    4.7247 0 2.9153 0 2.8717-1
 H, KJ/KG          90.643  -457.49 -2602.39
 U, KJ/KG         -930.86 -1406.41 -3206.74
 G, KJ/KG        -31677.2 -30238.1 -21883.5
 S, KJ/(KG)(K)    10.1323  10.1323  10.1323

 M, (1/n)          25.520   25.753   26.180
 (dLV/dLP)t      -1.01263 -1.00880 -1.00006
 (dLV/dLT)p        1.2665   1.1992   1.0018
 Cp, KJ/(KG)(K)    3.6362   3.2417   1.6933
 GAMMAs            1.1509   1.1553   1.2318
 SON VEL,M/SEC     1084.3   1047.0    862.8
 MACH NUMBER        0.000    1.000    2.690

 PERFORMANCE PARAMETERS

 Ae/At                      1.0000   4.5800
 CSTAR, M/SEC               1581.1   1581.1
 CF                         0.6622   1.4678
 Ivac, M/SEC                1953.3   2581.2
 Isp, M/SEC                 1047.0   2320.8


 MOLE FRACTIONS

 *CO             9.1722-2 8.4427-2 6.4212-2
 *CO2            9.6192-2 1.0521-1 1.2857-1
 *H              6.2836-3 4.4168-3 1.1569-4
 HO2             1.759 -5 7.604 -6 3.112-10
 *H2             3.4385-2 3.1590-2 3.5182-2
 H2O             2.7651-1 2.8635-1 2.9716-1
 *NO             7.4523-3 4.6418-3 8.3744-6
 *N2             4.5895-1 4.6460-1 4.7466-1
 *O              2.0341-3 1.0878-3 1.9832-7
 *OH             2.0014-2 1.3750-2 9.1797-5
 *O2             6.4151-3 3.9147-3 7.3048-7

  * THERMODYNAMIC PROPERTIES FITTED TO 20000.K

 NOTE. WEIGHT FRACTION OF FUEL IN TOTAL FUELS AND OF OXIDANT IN TOTAL OXIDANTS










              THEORETICAL ROCKET PERFORMANCE ASSUMING EQUILIBRIUM

           COMPOSITION DURING EXPANSION FROM INFINITE AREA COMBUSTOR

 Pin =   700.0 PSIA
 CASE = 12338386       

             REACTANT                    WT FRACTION      ENERGY      TEMP
                                          (SEE NOTE)     KJ/KG-MOL      K  
 FUEL        C2H5OH                       0.7500000   -234950.000    298.150
 FUEL        H2O(L)                       0.1712700   -285830.088    298.150
 FUEL        C5H10O2                      0.0414400    -33370.000      0.000
 FUEL        C3H8O                        0.0372900       360.000      0.000
 OXIDANT     N2O                          1.0000000     78046.212    200.000

 O/F=    3.96000  %FUEL= 20.161290  R,EQ.RATIO= 1.158425  PHI,EQ.RATIO= 1.206353

                 CHAMBER   THROAT     EXIT
 Pinf/P            1.0000   1.7444   27.776
 P, BAR            48.263   27.668   1.7376
 T, K             3136.21  2940.56  1906.78
 RHO, KG/CU M    4.7258 0 2.9160 0 2.8716-1
 H, KJ/KG          94.036  -453.87 -2599.16
 U, KJ/KG         -927.23 -1402.70 -3204.24
 G, KJ/KG        -31671.9 -30238.1 -21912.5
 S, KJ/(KG)(K)    10.1288  10.1288  10.1288

 M, (1/n)          25.533   25.768   26.201
 (dLV/dLP)t      -1.01272 -1.00890 -1.00006
 (dLV/dLT)p        1.2683   1.2015   1.0018
 Cp, KJ/(KG)(K)    3.6468   3.2566   1.6934
 GAMMAs            1.1506   1.1549   1.2316
 SON VEL,M/SEC     1084.0   1046.8    863.2
 MACH NUMBER        0.000    1.000    2.689

 PERFORMANCE PARAMETERS

 Ae/At                      1.0000   4.5800
 CSTAR, M/SEC               1581.1   1581.1
 CF                         0.6621   1.4679
 Ivac, M/SEC                1953.2   2581.6
 Isp, M/SEC                 1046.8   2320.9


 MOLE FRACTIONS

 *CO             9.1208-2 8.3854-2 6.3505-2
 *CO2            9.6426-2 1.0551-1 1.2905-1
 *H              6.2711-3 4.4124-3 1.1798-4
 HO2             1.791 -5 7.793 -6 3.413-10
 *H2             3.4073-2 3.1252-2 3.4571-2
 H2O             2.7627-1 2.8614-1 2.9737-1
 *NO             7.5467-3 4.7220-3 8.9105-6
 *N2             4.5938-1 4.6506-1 4.7528-1
 *O              2.0627-3 1.1096-3 2.1520-7
 *OH             2.0152-2 1.3890-2 9.6063-5
 *O2             6.5591-3 4.0328-3 8.0683-7

  * THERMODYNAMIC PROPERTIES FITTED TO 20000.K

 NOTE. WEIGHT FRACTION OF FUEL IN TOTAL FUELS AND OF OXIDANT IN TOTAL OXIDANTS










              THEORETICAL ROCKET PERFORMANCE ASSUMING EQUILIBRIUM

           COMPOSITION DURING EXPANSION FROM INFINITE AREA COMBUSTOR

 Pin =   700.0 PSIA
 CASE = 12338386       

             REACTANT                    WT FRACTION      ENERGY      TEMP
                                          (SEE NOTE)     KJ/KG-MOL      K  
 FUEL        C2H5OH                       0.7500000   -234950.000    298.150
 FUEL        H2O(L)                       0.1712700   -285830.088    298.150
 FUEL        C5H10O2                      0.0414400    -33370.000      0.000
 FUEL        C3H8O                        0.0372900       360.000      0.000
 OXIDANT     N2O                          1.0000000     78046.212    200.000

 O/F=    3.97000  %FUEL= 20.120724  R,EQ.RATIO= 1.156184  PHI,EQ.RATIO= 1.203314

                 CHAMBER   THROAT     EXIT
 Pinf/P            1.0000   1.7441   27.742
 P, BAR            48.263   27.672   1.7397
 T, K             3137.10  2941.92  1910.64
 RHO, KG/CU M    4.7269 0 2.9167 0 2.8716-1
 H, KJ/KG          97.415  -450.25 -2595.91
 U, KJ/KG         -923.61 -1399.00 -3201.73
 G, KJ/KG        -31666.4 -30237.8 -21941.5
 S, KJ/(KG)(K)    10.1252  10.1252  10.1252

 M, (1/n)          25.546   25.782   26.223
 (dLV/dLP)t      -1.01281 -1.00901 -1.00006
 (dLV/dLT)p        1.2701   1.2038   1.0019
 Cp, KJ/(KG)(K)    3.6571   3.2712   1.6936
 GAMMAs            1.1504   1.1545   1.2313
 SON VEL,M/SEC     1083.8   1046.6    863.7
 MACH NUMBER        0.000    1.000    2.687

 PERFORMANCE PARAMETERS

 Ae/At                      1.0000   4.5800
 CSTAR, M/SEC               1581.1   1581.1
 CF                         0.6620   1.4679
 Ivac, M/SEC                1953.1   2581.9
 Isp, M/SEC                 1046.6   2320.9


 MOLE FRACTIONS

 *CO             9.0697-2 8.3284-2 6.2797-2
 *CO2            9.6658-2 1.0580-1 1.2952-1
 *H              6.2584-3 4.4075-3 1.2028-4
 HO2             1.822 -5 7.985 -6 3.743-10
 *H2             3.3764-2 3.0918-2 3.3965-2
 H2O             2.7604-1 2.8593-1 2.9757-1
 *NO             7.6412-3 4.8025-3 9.4807-6
 *N2             4.5981-1 4.6552-1 4.7591-1
 *O              2.0913-3 1.1314-3 2.3350-7
 *OH             2.0290-2 1.4029-2 1.0052-4
 *O2             6.7049-3 4.1531-3 8.9120-7

  * THERMODYNAMIC PROPERTIES FITTED TO 20000.K

 NOTE. WEIGHT FRACTION OF FUEL IN TOTAL FUELS AND OF OXIDANT IN TOTAL OXIDANTS










              THEORETICAL ROCKET PERFORMANCE ASSUMING EQUILIBRIUM

           COMPOSITION DURING EXPANSION FROM INFINITE AREA COMBUSTOR

 Pin =   700.0 PSIA
 CASE = 12338386       

             REACTANT                    WT FRACTION      ENERGY      TEMP
                                          (SEE NOTE)     KJ/KG-MOL      K  
 FUEL        C2H5OH                       0.7500000   -234950.000    298.150
 FUEL        H2O(L)                       0.1712700   -285830.088    298.150
 FUEL        C5H10O2                      0.0414400    -33370.000      0.000
 FUEL        C3H8O                        0.0372900       360.000      0.000
 OXIDANT     N2O                          1.0000000     78046.212    200.000

 O/F=    3.98000  %FUEL= 20.080321  R,EQ.RATIO= 1.153951  PHI,EQ.RATIO= 1.200291

                 CHAMBER   THROAT     EXIT
 Pinf/P            1.0000   1.7439   27.709
 P, BAR            48.263   27.676   1.7418
 T, K             3137.97  2943.24  1914.49
 RHO, KG/CU M    4.7281 0 2.9174 0 2.8717-1
 H, KJ/KG          100.78  -446.66 -2592.66
 U, KJ/KG         -920.00 -1395.30 -3199.20
 G, KJ/KG        -31660.6 -30237.1 -21970.5
 S, KJ/(KG)(K)    10.1217  10.1217  10.1217

 M, (1/n)          25.560   25.797   26.244
 (dLV/dLP)t      -1.01290 -1.00911 -1.00006
 (dLV/dLT)p        1.2719   1.2061   1.0020
 Cp, KJ/(KG)(K)    3.6673   3.2857   1.6938
 GAMMAs            1.1502   1.1542   1.2311
 SON VEL,M/SEC     1083.6   1046.4    864.1
 MACH NUMBER        0.000    1.000    2.686

 PERFORMANCE PARAMETERS

 Ae/At                      1.0000   4.5800
 CSTAR, M/SEC               1581.0   1581.0
 CF                         0.6618   1.4680
 Ivac, M/SEC                1953.0   2582.3
 Isp, M/SEC                 1046.4   2321.0


 MOLE FRACTIONS

 *CO             9.0189-2 8.2718-2 6.2086-2
 *CO2            9.6887-2 1.0609-1 1.3000-1
 *H              6.2453-3 4.4023-3 1.2262-4
 HO2             1.854 -5 8.178 -6 4.104-10
 *H2             3.3459-2 3.0589-2 3.3364-2
 H2O             2.7580-1 2.8572-1 2.9777-1
 *NO             7.7358-3 4.8833-3 1.0087-5
 *N2             4.6024-1 4.6597-1 4.7654-1
 *O              2.1200-3 1.1533-3 2.5332-7
 *OH             2.0426-2 1.4168-2 1.0518-4
 *O2             6.8523-3 4.2755-3 9.8446-7

  * THERMODYNAMIC PROPERTIES FITTED TO 20000.K

 NOTE. WEIGHT FRACTION OF FUEL IN TOTAL FUELS AND OF OXIDANT IN TOTAL OXIDANTS










              THEORETICAL ROCKET PERFORMANCE ASSUMING EQUILIBRIUM

           COMPOSITION DURING EXPANSION FROM INFINITE AREA COMBUSTOR

 Pin =   700.0 PSIA
 CASE = 12338386       

             REACTANT                    WT FRACTION      ENERGY      TEMP
                                          (SEE NOTE)     KJ/KG-MOL      K  
 FUEL        C2H5OH                       0.7500000   -234950.000    298.150
 FUEL        H2O(L)                       0.1712700   -285830.088    298.150
 FUEL        C5H10O2                      0.0414400    -33370.000      0.000
 FUEL        C3H8O                        0.0372900       360.000      0.000
 OXIDANT     N2O                          1.0000000     78046.212    200.000

 O/F=    3.99000  %FUEL= 20.040080  R,EQ.RATIO= 1.151727  PHI,EQ.RATIO= 1.197282

                 CHAMBER   THROAT     EXIT
 Pinf/P            1.0000   1.7436   27.675
 P, BAR            48.263   27.679   1.7439
 T, K             3138.81  2944.53  1918.35
 RHO, KG/CU M    4.7292 0 2.9181 0 2.8717-1
 H, KJ/KG          104.13  -443.07 -2589.39
 U, KJ/KG         -916.39 -1391.61 -3196.67
 G, KJ/KG        -31654.7 -30236.2 -21999.5
 S, KJ/(KG)(K)    10.1181  10.1181  10.1181

 M, (1/n)          25.573   25.811   26.265
 (dLV/dLP)t      -1.01299 -1.00922 -1.00006
 (dLV/dLT)p        1.2737   1.2083   1.0020
 Cp, KJ/(KG)(K)    3.6773   3.3001   1.6940
 GAMMAs            1.1500   1.1538   1.2309
 SON VEL,M/SEC     1083.3   1046.1    864.6
 MACH NUMBER        0.000    1.000    2.685

 PERFORMANCE PARAMETERS

 Ae/At                      1.0000   4.5800
 CSTAR, M/SEC               1581.0   1581.0
 CF                         0.6617   1.4681
 Ivac, M/SEC                1952.8   2582.6
 Isp, M/SEC                 1046.1   2321.0


 MOLE FRACTIONS

 *CO             8.9683-2 8.2155-2 6.1373-2
 *CO2            9.7113-2 1.0638-1 1.3048-1
 *H              6.2319-3 4.3966-3 1.2497-4
 HO2             1.886 -5 8.374 -6 4.501-10
 *H2             3.3158-2 3.0265-2 3.2768-2
 H2O             2.7556-1 2.8551-1 2.9797-1
 *NO             7.8305-3 4.9645-3 1.0733-5
 *N2             4.6066-1 4.6643-1 4.7716-1
 *O              2.1486-3 1.1753-3 2.7481-7
 *OH             2.0561-2 1.4305-2 1.1004-4
 *O2             7.0014-3 4.4001-3 1.0876-6

  * THERMODYNAMIC PROPERTIES FITTED TO 20000.K

 NOTE. WEIGHT FRACTION OF FUEL IN TOTAL FUELS AND OF OXIDANT IN TOTAL OXIDANTS










              THEORETICAL ROCKET PERFORMANCE ASSUMING EQUILIBRIUM

           COMPOSITION DURING EXPANSION FROM INFINITE AREA COMBUSTOR

 Pin =   700.0 PSIA
 CASE = 12338386       

             REACTANT                    WT FRACTION      ENERGY      TEMP
                                          (SEE NOTE)     KJ/KG-MOL      K  
 FUEL        C2H5OH                       0.7500000   -234950.000    298.150
 FUEL        H2O(L)                       0.1712700   -285830.088    298.150
 FUEL        C5H10O2                      0.0414400    -33370.000      0.000
 FUEL        C3H8O                        0.0372900       360.000      0.000
 OXIDANT     N2O                          1.0000000     78046.212    200.000

 O/F=    4.00000  %FUEL= 20.000000  R,EQ.RATIO= 1.149511  PHI,EQ.RATIO= 1.194289

                 CHAMBER   THROAT     EXIT
 Pinf/P            1.0000   1.7434   27.641
 P, BAR            48.263   27.683   1.7461
 T, K             3139.63  2945.79  1922.21
 RHO, KG/CU M    4.7304 0 2.9189 0 2.8718-1
 H, KJ/KG          107.47  -439.50 -2586.11
 U, KJ/KG         -912.80 -1387.92 -3194.12
 G, KJ/KG        -31648.6 -30234.9 -22028.5
 S, KJ/(KG)(K)    10.1146  10.1146  10.1146

 M, (1/n)          25.586   25.825   26.286
 (dLV/dLP)t      -1.01307 -1.00932 -1.00007
 (dLV/dLT)p        1.2754   1.2105   1.0021
 Cp, KJ/(KG)(K)    3.6871   3.3142   1.6943
 GAMMAs            1.1498   1.1534   1.2306
 SON VEL,M/SEC     1083.1   1045.9    865.0
 MACH NUMBER        0.000    1.000    2.683

 PERFORMANCE PARAMETERS

 Ae/At                      1.0000   4.5800
 CSTAR, M/SEC               1580.9   1580.9
 CF                         0.6616   1.4682
 Ivac, M/SEC                1952.7   2583.0
 Isp, M/SEC                 1045.9   2321.0


 MOLE FRACTIONS

 *CO             8.9181-2 8.1596-2 6.0659-2
 *CO2            9.7338-2 1.0667-1 1.3097-1
 *H              6.2182-3 4.3906-3 1.2734-4
 HO2             1.918 -5 8.572 -6 4.935-10
 *H2             3.2861-2 2.9944-2 3.2178-2
 H2O             2.7532-1 2.8529-1 2.9816-1
 *NO             7.9252-3 5.0459-3 1.1419-5
 *N2             4.6109-1 4.6688-1 4.7778-1
 *O              2.1772-3 1.1974-3 2.9810-7
 *OH             2.0695-2 1.4441-2 1.1513-4
 *O2             7.1521-3 4.5269-3 1.2015-6

  * THERMODYNAMIC PROPERTIES FITTED TO 20000.K

 NOTE. WEIGHT FRACTION OF FUEL IN TOTAL FUELS AND OF OXIDANT IN TOTAL OXIDANTS










              THEORETICAL ROCKET PERFORMANCE ASSUMING EQUILIBRIUM

           COMPOSITION DURING EXPANSION FROM INFINITE AREA COMBUSTOR

 Pin =   700.0 PSIA
 CASE = 12338386       

             REACTANT                    WT FRACTION      ENERGY      TEMP
                                          (SEE NOTE)     KJ/KG-MOL      K  
 FUEL        C2H5OH                       0.7500000   -234950.000    298.150
 FUEL        H2O(L)                       0.1712700   -285830.088    298.150
 FUEL        C5H10O2                      0.0414400    -33370.000      0.000
 FUEL        C3H8O                        0.0372900       360.000      0.000
 OXIDANT     N2O                          1.0000000     78046.212    200.000

 O/F=    4.10000  %FUEL= 19.607843  R,EQ.RATIO= 1.127814  PHI,EQ.RATIO= 1.165160

                 CHAMBER   THROAT     EXIT
 Pinf/P            1.0000   1.7414   27.289
 P, BAR            48.263   27.715   1.7686
 T, K             3146.63  2956.65  1960.93
 RHO, KG/CU M    4.7432 0 2.9268 0 2.8740-1
 H, KJ/KG          140.13  -404.51 -2552.60
 U, KJ/KG         -877.38 -1351.45 -3168.00
 G, KJ/KG        -31577.3 -30207.0 -22318.4
 S, KJ/(KG)(K)    10.0798  10.0798  10.0798

 M, (1/n)          25.712   25.961   26.494
 (dLV/dLP)t      -1.01386 -1.01028 -1.00009
 (dLV/dLT)p        1.2911   1.2313   1.0030
 Cp, KJ/(KG)(K)    3.7739   3.4446   1.6991
 GAMMAs            1.1481   1.1503   1.2281
 SON VEL,M/SEC     1080.8   1043.7    869.3
 MACH NUMBER        0.000    1.000    2.669

 PERFORMANCE PARAMETERS

 Ae/At                      1.0000   4.5800
 CSTAR, M/SEC               1580.0   1580.0
 CF                         0.6606   1.4688
 Ivac, M/SEC                1951.0   2585.8
 Isp, M/SEC                 1043.7   2320.7


 MOLE FRACTIONS

 *CO             8.4316-2 7.6202-2 5.3415-2
 *CO2            9.9449-2 1.0934-1 1.3594-1
 *H              6.0669-3 4.3106-3 1.5208-4
 HO2             2.2467-5 1.0646-5 1.2427-9
 *H2             3.0079-2 2.6973-2 2.6553-2
 H2O             2.7279-1 2.8296-1 2.9982-1
 *NO             8.8724-3 5.8730-3 2.1250-5
 *N2             4.6520-1 4.7124-1 4.8391-1
 *O              2.4612-3 1.4213-3 6.7043-7
 *OH             2.1960-2 1.5743-2 1.8036-4
 *O2             8.7484-3 5.9124-3 3.2771-6

  * THERMODYNAMIC PROPERTIES FITTED TO 20000.K

 NOTE. WEIGHT FRACTION OF FUEL IN TOTAL FUELS AND OF OXIDANT IN TOTAL OXIDANTS










              THEORETICAL ROCKET PERFORMANCE ASSUMING EQUILIBRIUM

           COMPOSITION DURING EXPANSION FROM INFINITE AREA COMBUSTOR

 Pin =   700.0 PSIA
 CASE = 12338386       

             REACTANT                    WT FRACTION      ENERGY      TEMP
                                          (SEE NOTE)     KJ/KG-MOL      K  
 FUEL        C2H5OH                       0.7500000   -234950.000    298.150
 FUEL        H2O(L)                       0.1712700   -285830.088    298.150
 FUEL        C5H10O2                      0.0414400    -33370.000      0.000
 FUEL        C3H8O                        0.0372900       360.000      0.000
 OXIDANT     N2O                          1.0000000     78046.212    200.000

 O/F=    4.20000  %FUEL= 19.230769  R,EQ.RATIO= 1.106921  PHI,EQ.RATIO= 1.137418

                 CHAMBER   THROAT     EXIT
 Pinf/P            1.0000   1.7399   26.920
 P, BAR            48.263   27.740   1.7928
 T, K             3151.63  2964.66  1999.80
 RHO, KG/CU M    4.7576 0 2.9357 0 2.8785-1
 H, KJ/KG          171.54  -370.80 -2517.72
 U, KJ/KG         -842.91 -1315.72 -3140.57
 G, KJ/KG        -31489.7 -30153.7 -22607.7
 S, KJ/(KG)(K)    10.0460  10.0460  10.0460

 M, (1/n)          25.831   26.087   26.696
 (dLV/dLP)t      -1.01449 -1.01110 -1.00014
 (dLV/dLT)p        1.3037   1.2489   1.0044
 Cp, KJ/(KG)(K)    3.8406   3.5517   1.7097
 GAMMAs            1.1467   1.1479   1.2250
 SON VEL,M/SEC     1078.6   1041.5    873.5
 MACH NUMBER        0.000    1.000    2.655

 PERFORMANCE PARAMETERS

 Ae/At                      1.0000   4.5800
 CSTAR, M/SEC               1578.5   1578.5
 CF                         0.6598   1.4692
 Ivac, M/SEC                1948.8   2587.7
 Isp, M/SEC                 1041.5   2319.2


 MOLE FRACTIONS

 *CO             7.9735-2 7.1165-2 4.6006-2
 *CO2            1.0133-1 1.1169-1 1.4113-1
 *H              5.8943-3 4.2009-3 1.7782-4
 HO2             2.5842-5 1.2865-5 3.1548-9
 *H2             2.7610-2 2.4379-2 2.1427-2
 H2O             2.7012-1 2.8038-1 3.0105-1
 *NO             9.8132-3 6.7122-3 3.9761-5
 *N2             4.6911-1 4.7536-1 4.8989-1
 *O              2.7382-3 1.6463-3 1.5053-6
 *OH             2.3093-2 1.6924-2 2.8169-4
 *O2             1.0497-2 7.5043-3 9.1121-6

  * THERMODYNAMIC PROPERTIES FITTED TO 20000.K

 NOTE. WEIGHT FRACTION OF FUEL IN TOTAL FUELS AND OF OXIDANT IN TOTAL OXIDANTS










              THEORETICAL ROCKET PERFORMANCE ASSUMING EQUILIBRIUM

           COMPOSITION DURING EXPANSION FROM INFINITE AREA COMBUSTOR

 Pin =   700.0 PSIA
 CASE = 12338386       

             REACTANT                    WT FRACTION      ENERGY      TEMP
                                          (SEE NOTE)     KJ/KG-MOL      K  
 FUEL        C2H5OH                       0.7500000   -234950.000    298.150
 FUEL        H2O(L)                       0.1712700   -285830.088    298.150
 FUEL        C5H10O2                      0.0414400    -33370.000      0.000
 FUEL        C3H8O                        0.0372900       360.000      0.000
 OXIDANT     N2O                          1.0000000     78046.212    200.000

 O/F=    4.30000  %FUEL= 18.867925  R,EQ.RATIO= 1.086788  PHI,EQ.RATIO= 1.110967

                 CHAMBER   THROAT     EXIT
 Pinf/P            1.0000   1.7387   26.539
 P, BAR            48.263   27.758   1.8186
 T, K             3154.92  2970.19  2038.62
 RHO, KG/CU M    4.7732 0 2.9454 0 2.8853-1
 H, KJ/KG          201.76  -338.32 -2481.33
 U, KJ/KG         -809.37 -1280.76 -3111.64
 G, KJ/KG        -31388.9 -30079.3 -22894.4
 S, KJ/(KG)(K)    10.0131  10.0131  10.0131

 M, (1/n)          25.943   26.204   26.892
 (dLV/dLP)t      -1.01497 -1.01176 -1.00021
 (dLV/dLT)p        1.3133   1.2629   1.0069
 Cp, KJ/(KG)(K)    3.8882   3.6336   1.7306
 GAMMAs            1.1457   1.1461   1.2209
 SON VEL,M/SEC     1076.3   1039.3    877.2
 MACH NUMBER        0.000    1.000    2.641

 PERFORMANCE PARAMETERS

 Ae/At                     1.00000   4.5800
 CSTAR, M/SEC               1576.6   1576.6
 CF                         0.6592   1.4693
 Ivac, M/SEC                1946.1   2588.6
 Isp, M/SEC                 1039.3   2316.5


 MOLE FRACTIONS

 *CO             7.5426-2 6.6475-2 3.8468-2
 *CO2            1.0299-1 1.1374-1 1.4648-1
 *H              5.7068-3 4.0692-3 2.0270-4
 HO2             2.9257-5 1.5179-5 8.1478-9
 *H2             2.5412-2 2.2108-2 1.6790-2
 H2O             2.6734-1 2.7764-1 3.0183-1
 *NO             1.0739-2 7.5497-3 7.5249-5
 *N2             4.7284-1 4.7926-1 4.9568-1
 *O              3.0045-3 1.8667-3 3.3925-6
 *OH             2.4095-2 1.7976-2 4.3974-4
 *O2             1.2382-2 9.2881-3 2.6157-5

  * THERMODYNAMIC PROPERTIES FITTED TO 20000.K

 NOTE. WEIGHT FRACTION OF FUEL IN TOTAL FUELS AND OF OXIDANT IN TOTAL OXIDANTS



